LTspice 24.0.9 for Windows
Circuit: *** SPICE deck for cell 16_bit_comparator{sch} from library 4_bit_comparator
Start Time: Sat Jun 15 11:42:11 2024
Ignoring BSIM parameter XL
Ignoring BSIM parameter XW
Ignoring BSIM parameter XL
Ignoring BSIM parameter XW
solver = Normal
Maximum thread count: 8
tnom = 27
temp = 27
method = modified trap
Warning: Pd = 0 is less than W.
Warning: Ps = 0 is less than W.
Warning: Pd = 0 is less than W.
Warning: Ps = 0 is less than W.
Warning: Pd = 0 is less than W.
Warning: Ps = 0 is less than W.
Warning: Pd = 0 is less than W.
Warning: Ps = 0 is less than W.
Warning: Pd = 0 is less than W.
Warning: Ps = 0 is less than W.
Warning: Pd = 0 is less than W.
Warning: Ps = 0 is less than W.
Warning: Pd = 0 is less than W.
Warning: Ps = 0 is less than W.
Early termination of direct N-R iteration.
Direct Newton iteration failed to find .op point.  (Use ".option noopiter" to skip.)
Starting Gmin stepping
Gmin = 10
Gmin = 1.07374
Gmin = 0.115292
Gmin = 0.0123794
Gmin = 0.00132923
Gmin = 0.000142725
Gmin = 1.5325e-05
Gmin = 1.6455e-06
Gmin = 1.76685e-07
Gmin = 1.89714e-08
Gmin = 2.03704e-09
Gmin = 2.18725e-10
Gmin = 2.34854e-11
Gmin = 2.52173e-12
Gmin = 2.70769e-13
Gmin = 0
Gmin stepping succeeded in finding the operating point.

Changing Tseed to 9.76562e-15

tf1=7.24004e-10 FROM 5.80281e-08 TO 5.87521e-08
tr1=9.61038e-10 FROM 1.96129e-08 TO 2.05739e-08
tf2=7.26928e-10 FROM 1.80519e-08 TO 1.87789e-08
tr2=9.5952e-10 FROM 1.02597e-08 TO 1.12192e-08
tf3=7.35595e-10 FROM 1.00171e-08 TO 1.07527e-08
tr3=9.57327e-10 FROM 6.8989e-08 TO 6.99464e-08

Total elapsed time: 1.609 seconds.

