LTspice 24.0.9 for Windows
Circuit: *** SPICE deck for cell 8_bit_comparator{sch} from library 4_bit_comparator
Start Time: Thu Jun 13 22:40:33 2024
Ignoring BSIM parameter XL
Ignoring BSIM parameter XW
Ignoring BSIM parameter XL
Ignoring BSIM parameter XW
solver = Normal
Maximum thread count: 8
tnom = 27
temp = 27
method = modified trap
reltol = 0.01
Unknown node in .ic card: "n001" -- ignoring
Warning: Pd = 0 is less than W.
Warning: Ps = 0 is less than W.
Warning: Pd = 0 is less than W.
Warning: Ps = 0 is less than W.
Warning: Pd = 0 is less than W.
Warning: Ps = 0 is less than W.
Warning: Pd = 0 is less than W.
Warning: Ps = 0 is less than W.
Warning: Pd = 0 is less than W.
Warning: Ps = 0 is less than W.
Warning: Pd = 0 is less than W.
Warning: Ps = 0 is less than W.
Warning: Pd = 0 is less than W.
Warning: Ps = 0 is less than W.
Early termination of direct N-R iteration.
Direct Newton iteration failed to find .op point.  (Use ".option noopiter" to skip.)
Starting Gmin stepping
Gmin = 10
Gmin = 1.07374
Gmin = 0.115292
Gmin = 0.0123794
Gmin = 0.00132923
Gmin = 0.000142725
Gmin = 1.5325e-05
Gmin = 1.6455e-06
Gmin = 1.76685e-07
Gmin = 1.89714e-08
Gmin = 2.03704e-09
Gmin = 2.18725e-10
Gmin = 2.34854e-11
Gmin = 2.52173e-12
Gmin = 2.70769e-13
Gmin = 0
Gmin stepping succeeded in finding the operating point.


tf1=5.24329e-10 FROM 5.71222e-08 TO 5.76465e-08
tr1=6.49726e-10 FROM 1.85873e-08 TO 1.92371e-08
tf2=5.21359e-10 FROM 1.71495e-08 TO 1.76709e-08
tr2=6.36539e-10 FROM 9.25066e-09 TO 9.8872e-09
tf3=4.80456e-10 FROM 9.22843e-09 TO 9.70889e-09
tr3=6.37659e-10 FROM 6.80198e-08 TO 6.86574e-08

Total elapsed time: 0.962 seconds.

