LTspice 24.0.9 for Windows
Circuit: *** SPICE deck for cell INV{lay} from library InverterProject
Start Time: Mon May 27 12:59:52 2024
Ignoring BSIM parameter XL
Ignoring BSIM parameter XW
Ignoring BSIM parameter XL
Ignoring BSIM parameter XW
solver = Normal
Maximum thread count: 8
tnom = 27
temp = 27
method = modified trap
vin: Removing PWL point (7e-08,0)
Direct Newton iteration for .op point succeeded.

tf=2.79165e-09 FROM 1.43235e-08 TO 1.71151e-08
tr=2.86784e-09 FROM 5.52886e-08 TO 5.81564e-08

Total elapsed time: 0.466 seconds.

