LTspice 24.0.9 for Windows
Circuit: *** SPICE deck for cell Test_4_Comparator{lay} from library 4_bit_comparator
Start Time: Tue Jun 11 12:14:17 2024
Ignoring BSIM parameter XL
Ignoring BSIM parameter XW
Ignoring BSIM parameter XL
Ignoring BSIM parameter XW
solver = Normal
Maximum thread count: 8
tnom = 27
temp = 27
method = modified trap
WARNING: Less than two connections to node gnd_1.  This node is used by mnmos@0.
WARNING: Less than two connections to node gnd_5.  This node is used by mnmos@38.
WARNING: Less than two connections to node gnd_7.  This node is used by mnmos@39.
WARNING: Less than two connections to node gnd_10.  This node is used by mnmos@48.
WARNING: Less than two connections to node gnd_11.  This node is used by mnmos@49.
WARNING: Less than two connections to node gnd_15.  This node is used by mnmos@58.
WARNING: Less than two connections to node gnd_16.  This node is used by mnmos@59.
Direct Newton iteration failed to find .op point.  (Use ".option noopiter" to skip.)
Starting Gmin stepping
Gmin = 10
Gmin = 1.07374
Gmin = 0.115292
Gmin = 0.0123794
Gmin = 0.00132923
Gmin = 0.000142725
Gmin = 1.5325e-05
Gmin = 1.6455e-06
Gmin = 1.76685e-07
Gmin = 1.89714e-08
Gmin = 2.03704e-09
Gmin = 2.18725e-10
Gmin = 2.34854e-11
Gmin = 2.52173e-12
Gmin = 2.70769e-13
Gmin = 0
Gmin stepping succeeded in finding the operating point.



Measurement "tf1" FAIL'ed

Measurement "tr1" FAIL'ed

Measurement "tf2" FAIL'ed

Measurement "tr2" FAIL'ed

Measurement "tf3" FAIL'ed

Measurement "tr3" FAIL'ed

Total elapsed time: 0.822 seconds.

