LTspice 24.0.9 for Windows
Circuit: *** SPICE deck for cell TwoInNOR{lay} from library 2InputNOR
Start Time: Mon May 27 14:48:23 2024
Ignoring BSIM parameter XL
Ignoring BSIM parameter XW
Ignoring BSIM parameter XL
Ignoring BSIM parameter XW
solver = Normal
Maximum thread count: 8
tnom = 27
temp = 27
method = modified trap
va: Removing PWL point (1e-08,5)
vb: Removing PWL point (1e-08,0)
va2: Removing PWL point (1e-08,5)
vb2: Removing PWL point (1e-08,0)
va1: Removing PWL point (1e-08,5)
vb1: Removing PWL point (1e-08,0)
va0: Removing PWL point (1e-08,5)
vb0: Removing PWL point (1e-08,0)
WARNING: Node GREATERTHAN is floating.
WARNING: Node LESSTHAN is floating.
WARNING: Node EQUAL is floating.
WARNING: Node OUTNOR is floating.

WARNING: Less than two connections to node vdd_5.  This node is used by vdd5.
WARNING: Less than two connections to node vdd_9.  This node is used by vdd9.
WARNING: Less than two connections to node vdd_8.  This node is used by vdd8.
WARNING: Less than two connections to node vdd_12.  This node is used by vdd12.
WARNING: Less than two connections to node vdd_13.  This node is used by vdd13.
WARNING: Less than two connections to node vdd_14.  This node is used by vdd14.
WARNING: Less than two connections to node vdd_15.  This node is used by vdd15.
WARNING: Less than two connections to node vdd_16.  This node is used by vdd16.
WARNING: Less than two connections to node vdd_17.  This node is used by vdd17.
WARNING: Less than two connections to node vdd_18.  This node is used by vdd18.
WARNING: Less than two connections to node vdd_19.  This node is used by vdd19.
WARNING: Less than two connections to node vdd_20.  This node is used by vdd20.
WARNING: Less than two connections to node vdd_21.  This node is used by vdd21.
WARNING: Less than two connections to node vdd_22.  This node is used by vdd22.
WARNING: Less than two connections to node vdd_23.  This node is used by vdd23.
WARNING: Less than two connections to node vdd_24.  This node is used by vdd24.
WARNING: Less than two connections to node vdd_25.  This node is used by vdd25.
WARNING: Less than two connections to node vdd_26.  This node is used by vdd26.
WARNING: Less than two connections to node vdd_27.  This node is used by vdd27.
WARNING: Less than two connections to node vdd_28.  This node is used by vdd28.
WARNING: Less than two connections to node vdd_29.  This node is used by vdd29.
WARNING: Less than two connections to node vdd_30.  This node is used by vdd30.
WARNING: Less than two connections to node vdd_31.  This node is used by vdd31.
WARNING: Less than two connections to node vdd_32.  This node is used by vdd32.
WARNING: Less than two connections to node vdd_33.  This node is used by vdd33.
WARNING: Less than two connections to node vdd_34.  This node is used by vdd34.
WARNING: Less than two connections to node vdd_35.  This node is used by vdd35.
WARNING: Less than two connections to node vdd_36.  This node is used by vdd36.
WARNING: Less than two connections to node a2.  This node is used by va2.
WARNING: Less than two connections to node b2.  This node is used by vb2.
WARNING: Less than two connections to node a1.  This node is used by va1.
WARNING: Less than two connections to node b1.  This node is used by vb1.
WARNING: Less than two connections to node a0.  This node is used by va0.
WARNING: Less than two connections to node b0.  This node is used by vb0.
WARNING: Less than two connections to node greaterthan.  This node is used by cload1.
WARNING: Less than two connections to node lessthan.  This node is used by cload2.
WARNING: Less than two connections to node equal.  This node is used by cload3.
WARNING: Less than two connections to node outnor.  This node is used by cload4.
Direct Newton iteration for .op point succeeded.


Measurement "tf1" FAIL'ed

Measurement "tr1" FAIL'ed

Measurement "tf2" FAIL'ed

Measurement "tr2" FAIL'ed

Measurement "tf3" FAIL'ed

Measurement "tr3" FAIL'ed

Measurement "tf4" FAIL'ed

Measurement "tr4" FAIL'ed

Total elapsed time: 0.796 seconds.

